Version 4
SHEET 1 1372 680
WIRE -192 0 -288 0
WIRE -128 0 -192 0
WIRE -16 0 -48 0
WIRE 288 0 -16 0
WIRE 400 0 288 0
WIRE 736 0 400 0
WIRE 1072 0 736 0
WIRE -288 80 -288 0
WIRE -192 80 -192 0
WIRE -16 80 -16 0
WIRE 288 96 288 64
WIRE 400 96 400 64
WIRE 1072 112 1072 0
WIRE 1072 112 1024 112
WIRE 736 128 736 80
WIRE 960 128 736 128
WIRE 1072 144 1024 144
WIRE 288 176 288 160
WIRE 288 176 208 176
WIRE 400 176 400 160
WIRE 496 176 400 176
WIRE 288 192 288 176
WIRE 400 192 400 176
WIRE 736 192 736 128
WIRE -288 256 -288 160
WIRE -192 256 -192 144
WIRE -16 256 -16 144
WIRE 736 288 736 272
WIRE 1072 288 1072 144
WIRE 1072 288 736 288
WIRE 288 336 288 272
WIRE 400 336 400 272
WIRE 208 400 208 176
WIRE 496 400 496 176
WIRE 1072 400 1072 368
WIRE 208 528 208 480
WIRE 256 528 208 528
WIRE 496 528 496 480
WIRE 544 528 496 528
FLAG -288 256 0
FLAG -192 256 0
FLAG -16 256 0
FLAG 288 336 0
FLAG 400 336 0
FLAG 1072 400 0
FLAG 1008 96 Vee
FLAG 1008 160 Vcc
FLAG 256 528 Vee
FLAG 544 528 Vcc
FLAG -16 0 Vx
FLAG -192 0 Vy
FLAG 832 -288 Vcc
FLAG 960 -208 Vee
FLAG 832 -208 0
FLAG 960 -288 0
SYMBOL ind -304 64 R0
SYMATTR InstName L1
SYMATTR Value 8.5m
SYMBOL cap -208 80 R0
SYMATTR InstName C1
SYMATTR Value 47n
SYMBOL cap -32 80 R0
SYMATTR InstName C2
SYMATTR Value 4.6n
SYMBOL res -32 -16 R90
WINDOW 0 0 56 VBottom 2
WINDOW 3 32 56 VTop 2
SYMATTR InstName R
SYMATTR Value 1.6k
SYMBOL diode 304 64 R180
WINDOW 0 24 64 Left 2
WINDOW 3 24 0 Left 2
SYMATTR InstName D1
SYMATTR Value 1N4148
SYMBOL diode 384 0 R0
SYMATTR InstName D2
SYMATTR Value 1N4148
SYMBOL res 272 176 R0
SYMATTR InstName R4
SYMATTR Value 3.3k
SYMBOL res 384 176 R0
SYMATTR InstName R5
SYMATTR Value 3.3k
SYMBOL res 192 384 R0
SYMATTR InstName R7
SYMATTR Value 47k
SYMBOL res 480 384 R0
SYMATTR InstName R8
SYMATTR Value 47k
SYMBOL res 720 -16 R0
SYMATTR InstName R1
SYMATTR Value 290
SYMBOL res 720 176 R0
SYMATTR InstName R2
SYMATTR Value 290
SYMBOL OpAmps\\LT1351 992 128 R180
SYMATTR InstName U1
SYMBOL res 1056 272 R0
SYMATTR InstName R3
SYMATTR Value {X}
SYMBOL voltage 832 -304 R0
SYMATTR InstName V1
SYMATTR Value 9
SYMBOL voltage 960 -304 R0
SYMATTR InstName V2
SYMATTR Value 9
SYMBOL zener 416 160 R180
WINDOW 0 24 64 Left 2
WINDOW 3 24 0 Left 2
SYMATTR InstName D3
SYMATTR Value 1N750
SYMBOL zener 272 96 R0
SYMATTR InstName D4
SYMATTR Value 1N750
TEXT 984 544 Left 2 !.tran 0 100m 50m 1m
TEXT 984 576 Left 2 !.step param X 1k 1.6k 10
