Version 4
SHEET 1 1064 864
WIRE -464 -384 -464 -400
WIRE -352 -384 -352 -400
WIRE 208 -336 176 -336
WIRE 336 -336 288 -336
WIRE 512 -320 464 -320
WIRE 656 -320 576 -320
WIRE 832 -304 784 -304
WIRE 976 -304 912 -304
WIRE -464 -288 -464 -304
WIRE -352 -288 -352 -304
WIRE 0 -256 -112 -256
WIRE 128 -256 80 -256
WIRE 128 -176 128 -256
WIRE 176 -176 176 -336
WIRE 176 -176 128 -176
WIRE 208 -176 176 -176
WIRE 336 -160 336 -336
WIRE 336 -160 304 -160
WIRE 368 -160 336 -160
WIRE 464 -160 464 -320
WIRE 464 -160 448 -160
WIRE 512 -160 464 -160
WIRE 0 -144 -112 -144
WIRE 128 -144 128 -176
WIRE 128 -144 80 -144
WIRE 208 -144 192 -144
WIRE 656 -144 656 -320
WIRE 656 -144 608 -144
WIRE 688 -144 656 -144
WIRE 784 -144 784 -304
WIRE 784 -144 768 -144
WIRE 816 -144 784 -144
WIRE 512 -128 464 -128
WIRE 976 -128 976 -304
WIRE 976 -128 912 -128
WIRE 1024 -128 976 -128
WIRE 656 -112 656 -144
WIRE 816 -112 768 -112
WIRE 464 -80 464 -128
WIRE 768 -64 768 -112
WIRE -304 0 -352 0
WIRE -128 0 -144 0
WIRE 208 48 176 48
WIRE 336 48 288 48
WIRE -304 64 -320 64
WIRE -128 64 -144 64
WIRE 512 64 464 64
WIRE 656 64 576 64
WIRE 832 80 784 80
WIRE 976 80 912 80
WIRE -304 128 -352 128
WIRE 0 128 -144 128
WIRE 128 128 80 128
WIRE -304 192 -320 192
WIRE -128 192 -144 192
WIRE 128 208 128 128
WIRE 176 208 176 48
WIRE 176 208 128 208
WIRE 208 208 176 208
WIRE 336 224 336 48
WIRE 336 224 304 224
WIRE 368 224 336 224
WIRE 464 224 464 64
WIRE 464 224 448 224
WIRE 512 224 464 224
WIRE 0 240 -64 240
WIRE 128 240 128 208
WIRE 128 240 80 240
WIRE 208 240 192 240
WIRE 656 240 656 64
WIRE 656 240 608 240
WIRE 688 240 656 240
WIRE 784 240 784 80
WIRE 784 240 768 240
WIRE 816 240 784 240
WIRE 512 256 464 256
WIRE 976 256 976 80
WIRE 976 256 912 256
WIRE 1024 256 976 256
WIRE 656 272 656 240
WIRE 816 272 768 272
WIRE 464 304 464 256
WIRE 768 320 768 272
WIRE 0 352 -64 352
WIRE 128 352 128 240
WIRE 128 352 80 352
WIRE -304 384 -352 384
WIRE -128 384 -144 384
WIRE 208 432 176 432
WIRE 336 432 288 432
WIRE -304 448 -320 448
WIRE -128 448 -144 448
WIRE 512 448 464 448
WIRE 656 448 576 448
WIRE 832 464 784 464
WIRE 976 464 912 464
WIRE -304 512 -352 512
WIRE 0 512 -144 512
WIRE 128 512 80 512
WIRE -304 576 -320 576
WIRE -128 576 -144 576
WIRE 128 592 128 512
WIRE 176 592 176 432
WIRE 176 592 128 592
WIRE 208 592 176 592
WIRE 336 608 336 432
WIRE 336 608 304 608
WIRE 368 608 336 608
WIRE 464 608 464 448
WIRE 464 608 448 608
WIRE 512 608 464 608
WIRE 0 624 -64 624
WIRE 128 624 128 592
WIRE 128 624 80 624
WIRE 208 624 192 624
WIRE 656 624 656 448
WIRE 656 624 608 624
WIRE 688 624 656 624
WIRE 784 624 784 464
WIRE 784 624 768 624
WIRE 816 624 784 624
WIRE 512 640 464 640
WIRE 976 640 976 464
WIRE 976 640 912 640
WIRE 1024 640 976 640
WIRE 816 656 768 656
WIRE 656 672 656 624
WIRE 464 688 464 640
WIRE 768 704 768 656
FLAG -464 -288 0
FLAG -352 -288 0
FLAG -464 -400 +12
FLAG -352 -400 -12
FLAG 560 -96 -12
FLAG 560 -192 +12
FLAG 864 -80 -12
FLAG 864 -176 +12
FLAG 464 -80 0
FLAG 768 -64 0
FLAG 1024 -128 -x
FLAG 560 288 -12
FLAG 560 192 +12
FLAG 864 304 -12
FLAG 864 208 +12
FLAG 464 304 0
FLAG 768 320 0
FLAG 560 672 -12
FLAG 560 576 +12
FLAG 864 688 -12
FLAG 864 592 +12
FLAG 464 688 0
FLAG 768 704 0
FLAG 1024 640 -z
FLAG 1024 256 -y
FLAG 656 -112 x
FLAG -112 -256 -x
FLAG -112 -144 y
FLAG 656 272 y
FLAG -64 352 -y
FLAG -64 240 x
FLAG 656 672 z
FLAG -64 624 -z
FLAG -128 576 +12
FLAG -128 192 +12
FLAG -128 0 -12
FLAG -128 384 -12
FLAG -128 64 0
FLAG -128 448 0
FLAG -320 448 0
FLAG -320 576 0
FLAG -320 64 0
FLAG -320 192 0
FLAG -352 0 x
FLAG -352 128 z
FLAG -352 512 -y
FLAG -352 384 x
FLAG 256 656 -12
FLAG 256 560 +12
FLAG 256 272 -12
FLAG 256 176 +12
FLAG 256 -112 -12
FLAG 256 -208 +12
FLAG 192 624 0
FLAG 192 240 0
FLAG 192 -144 0
SYMBOL Misc\\battery -464 -400 R0
WINDOW 123 0 0 Left 0
WINDOW 39 0 0 Left 0
SYMATTR InstName V1
SYMATTR Value 12
SYMBOL Misc\\battery -352 -400 R0
WINDOW 123 0 0 Left 0
WINDOW 39 0 0 Left 0
SYMATTR InstName V2
SYMATTR Value -12
SYMBOL component\\ADTL082 544 -144 R0
SYMATTR InstName U1
SYMBOL component\\ADTL082 848 -128 R0
SYMATTR InstName U2
SYMBOL res 784 -160 R90
WINDOW 0 0 56 VBottom 2
WINDOW 3 32 56 VTop 2
SYMATTR InstName R1
SYMATTR Value 10k
SYMBOL res 928 -320 R90
WINDOW 0 0 56 VBottom 2
WINDOW 3 32 56 VTop 2
SYMATTR InstName R2
SYMATTR Value 10k
SYMBOL cap 576 -336 R90
WINDOW 0 0 32 VBottom 2
WINDOW 3 32 32 VTop 2
SYMATTR InstName C1
SYMATTR Value 100n
SYMBOL res 96 -160 R90
WINDOW 0 0 56 VBottom 2
WINDOW 3 32 56 VTop 2
SYMATTR InstName R3
SYMATTR Value {sigma}
SYMBOL res 96 -272 R90
WINDOW 0 0 56 VBottom 2
WINDOW 3 32 56 VTop 2
SYMATTR InstName R4
SYMATTR Value {sigma}
SYMBOL component\\ADTL082 544 240 R0
SYMATTR InstName U3
SYMBOL component\\ADTL082 848 256 R0
SYMATTR InstName U4
SYMBOL res 784 224 R90
WINDOW 0 0 56 VBottom 2
WINDOW 3 32 56 VTop 2
SYMATTR InstName R5
SYMATTR Value 10k
SYMBOL res 928 64 R90
WINDOW 0 0 56 VBottom 2
WINDOW 3 32 56 VTop 2
SYMATTR InstName R6
SYMATTR Value 10k
SYMBOL cap 576 48 R90
WINDOW 0 0 32 VBottom 2
WINDOW 3 32 32 VTop 2
SYMATTR InstName C2
SYMATTR Value 100n
SYMBOL res 96 224 R90
WINDOW 0 0 56 VBottom 2
WINDOW 3 32 56 VTop 2
SYMATTR InstName R7
SYMATTR Value {r}
SYMBOL res 96 112 R90
WINDOW 0 0 56 VBottom 2
WINDOW 3 32 56 VTop 2
SYMATTR InstName R8
SYMATTR Value 1k
SYMBOL component\\ADTL082 544 624 R0
SYMATTR InstName U5
SYMBOL component\\ADTL082 848 640 R0
SYMATTR InstName U6
SYMBOL res 784 608 R90
WINDOW 0 0 56 VBottom 2
WINDOW 3 32 56 VTop 2
SYMATTR InstName R9
SYMATTR Value 10k
SYMBOL res 928 448 R90
WINDOW 0 0 56 VBottom 2
WINDOW 3 32 56 VTop 2
SYMATTR InstName R10
SYMATTR Value 10k
SYMBOL cap 576 432 R90
WINDOW 0 0 32 VBottom 2
WINDOW 3 32 32 VTop 2
SYMATTR InstName C3
SYMATTR Value 100n
SYMBOL res 96 608 R90
WINDOW 0 0 56 VBottom 2
WINDOW 3 32 56 VTop 2
SYMATTR InstName R11
SYMATTR Value 35.7k
SYMBOL res 96 496 R90
WINDOW 0 0 56 VBottom 2
WINDOW 3 32 56 VTop 2
SYMATTR InstName R12
SYMATTR Value 1k
SYMBOL res 96 336 R90
WINDOW 0 0 56 VBottom 2
WINDOW 3 32 56 VTop 2
SYMATTR InstName R13
SYMATTR Value 100k
SYMBOL component\\AD633 -208 112 R0
SYMATTR InstName U7
SYMBOL component\\AD633 -208 496 R0
SYMATTR InstName U8
SYMBOL component\\ADTL082 240 608 R0
SYMATTR InstName U9
SYMBOL res 464 592 R90
WINDOW 0 0 56 VBottom 2
WINDOW 3 32 56 VTop 2
SYMATTR InstName R14
SYMATTR Value {k}
SYMBOL component\\ADTL082 240 224 R0
SYMATTR InstName U10
SYMBOL res 464 208 R90
WINDOW 0 0 56 VBottom 2
WINDOW 3 32 56 VTop 2
SYMATTR InstName R15
SYMATTR Value {k}
SYMBOL component\\ADTL082 240 -160 R0
SYMATTR InstName U11
SYMBOL res 464 -176 R90
WINDOW 0 0 56 VBottom 2
WINDOW 3 32 56 VTop 2
SYMATTR InstName R16
SYMATTR Value {k}
SYMBOL res 304 -352 R90
WINDOW 0 0 56 VBottom 2
WINDOW 3 32 56 VTop 2
SYMATTR InstName R17
SYMATTR Value 10k
SYMBOL res 304 32 R90
WINDOW 0 0 56 VBottom 2
WINDOW 3 32 56 VTop 2
SYMATTR InstName R18
SYMATTR Value 10k
SYMBOL res 304 416 R90
WINDOW 0 0 56 VBottom 2
WINDOW 3 32 56 VTop 2
SYMATTR InstName R19
SYMATTR Value 10k
TEXT -704 216 Left 2 !.tran 0 10 10m startup
TEXT -704 848 Left 2 !.wave "C:\\POLITEK\\CHAOS\\LTSPICE\\out_ssignal_lorenz.wav" 16 44.1k V(x)
TEXT -696 784 Left 2 !.param k=100k
TEXT -696 752 Left 2 !.param sigma=10k
TEXT -696 720 Left 2 !.param r=3.5k
TEXT -696 688 Left 2 !.param b=45k
