Version 4
SHEET 1 880 864
WIRE -464 -384 -464 -400
WIRE -352 -384 -352 -400
WIRE 256 -304 208 -304
WIRE 400 -304 320 -304
WIRE -464 -288 -464 -304
WIRE -352 -288 -352 -304
WIRE 576 -288 528 -288
WIRE 720 -288 656 -288
WIRE 0 -256 -112 -256
WIRE 128 -256 80 -256
WIRE 0 -144 -112 -144
WIRE 128 -144 128 -256
WIRE 128 -144 80 -144
WIRE 208 -144 208 -304
WIRE 208 -144 128 -144
WIRE 256 -144 208 -144
WIRE 400 -128 400 -304
WIRE 400 -128 352 -128
WIRE 432 -128 400 -128
WIRE 528 -128 528 -288
WIRE 528 -128 512 -128
WIRE 560 -128 528 -128
WIRE 256 -112 208 -112
WIRE 720 -112 720 -288
WIRE 720 -112 656 -112
WIRE 768 -112 720 -112
WIRE 400 -96 400 -128
WIRE 560 -96 512 -96
WIRE 208 -64 208 -112
WIRE 512 -48 512 -96
WIRE -304 0 -352 0
WIRE -128 0 -144 0
WIRE -304 64 -320 64
WIRE -128 64 -144 64
WIRE 256 80 208 80
WIRE 400 80 320 80
WIRE 576 96 528 96
WIRE 720 96 656 96
WIRE -304 128 -352 128
WIRE 0 128 -144 128
WIRE 128 128 80 128
WIRE -304 192 -320 192
WIRE -128 192 -144 192
WIRE 0 240 -64 240
WIRE 128 240 128 128
WIRE 128 240 80 240
WIRE 208 240 208 80
WIRE 208 240 128 240
WIRE 256 240 208 240
WIRE 400 256 400 80
WIRE 400 256 352 256
WIRE 432 256 400 256
WIRE 528 256 528 96
WIRE 528 256 512 256
WIRE 560 256 528 256
WIRE 256 272 208 272
WIRE 720 272 720 96
WIRE 720 272 656 272
WIRE 768 272 720 272
WIRE 400 288 400 256
WIRE 560 288 512 288
WIRE 208 320 208 272
WIRE 512 336 512 288
WIRE 0 352 -64 352
WIRE 128 352 128 240
WIRE 128 352 80 352
WIRE -304 384 -352 384
WIRE -128 384 -144 384
WIRE -304 448 -320 448
WIRE -128 448 -144 448
WIRE 256 464 208 464
WIRE 400 464 320 464
WIRE 576 480 528 480
WIRE 720 480 656 480
WIRE -304 512 -352 512
WIRE 0 512 -144 512
WIRE 128 512 80 512
WIRE -304 576 -320 576
WIRE -128 576 -144 576
WIRE 0 624 -64 624
WIRE 128 624 128 512
WIRE 128 624 80 624
WIRE 208 624 208 464
WIRE 208 624 128 624
WIRE 256 624 208 624
WIRE 400 640 400 464
WIRE 400 640 352 640
WIRE 432 640 400 640
WIRE 528 640 528 480
WIRE 528 640 512 640
WIRE 560 640 528 640
WIRE 256 656 208 656
WIRE 720 656 720 480
WIRE 720 656 656 656
WIRE 768 656 720 656
WIRE 560 672 512 672
WIRE 400 688 400 640
WIRE 208 704 208 656
WIRE 512 720 512 672
FLAG -464 -288 0
FLAG -352 -288 0
FLAG -464 -400 +12
FLAG -352 -400 -12
FLAG 304 -80 -12
FLAG 304 -176 +12
FLAG 608 -64 -12
FLAG 608 -160 +12
FLAG 208 -64 0
FLAG 512 -48 0
FLAG 768 -112 x
FLAG 304 304 -12
FLAG 304 208 +12
FLAG 608 320 -12
FLAG 608 224 +12
FLAG 208 320 0
FLAG 512 336 0
FLAG 304 688 -12
FLAG 304 592 +12
FLAG 608 704 -12
FLAG 608 608 +12
FLAG 208 704 0
FLAG 512 720 0
FLAG 768 656 z
FLAG 768 272 y
FLAG 400 -96 -x
FLAG -112 -256 -x
FLAG -112 -144 y
FLAG 400 288 -y
FLAG -64 352 -y
FLAG -64 240 x
FLAG 400 688 -z
FLAG -64 624 -z
FLAG -128 576 +12
FLAG -128 192 +12
FLAG -128 0 -12
FLAG -128 384 -12
FLAG -128 64 0
FLAG -128 448 0
FLAG -320 448 0
FLAG -320 576 0
FLAG -320 64 0
FLAG -320 192 0
FLAG -352 0 x
FLAG -352 128 z
FLAG -352 512 -y
FLAG -352 384 x
SYMBOL Misc\\battery -464 -400 R0
WINDOW 123 0 0 Left 0
WINDOW 39 0 0 Left 0
SYMATTR InstName V1
SYMATTR Value 12
SYMBOL Misc\\battery -352 -400 R0
WINDOW 123 0 0 Left 0
WINDOW 39 0 0 Left 0
SYMATTR InstName V2
SYMATTR Value -12
SYMBOL component\\ADTL082 288 -128 R0
SYMATTR InstName U1
SYMBOL component\\ADTL082 592 -112 R0
SYMATTR InstName U2
SYMBOL res 528 -144 R90
WINDOW 0 0 56 VBottom 2
WINDOW 3 32 56 VTop 2
SYMATTR InstName R1
SYMATTR Value 10k
SYMBOL res 672 -304 R90
WINDOW 0 0 56 VBottom 2
WINDOW 3 32 56 VTop 2
SYMATTR InstName R2
SYMATTR Value 10k
SYMBOL cap 320 -320 R90
WINDOW 0 0 32 VBottom 2
WINDOW 3 32 32 VTop 2
SYMATTR InstName C1
SYMATTR Value 100n
SYMBOL res 96 -160 R90
WINDOW 0 0 56 VBottom 2
WINDOW 3 32 56 VTop 2
SYMATTR InstName R3
SYMATTR Value 10k
SYMBOL res 96 -272 R90
WINDOW 0 0 56 VBottom 2
WINDOW 3 32 56 VTop 2
SYMATTR InstName R4
SYMATTR Value 10k
SYMBOL component\\ADTL082 288 256 R0
SYMATTR InstName U3
SYMBOL component\\ADTL082 592 272 R0
SYMATTR InstName U4
SYMBOL res 528 240 R90
WINDOW 0 0 56 VBottom 2
WINDOW 3 32 56 VTop 2
SYMATTR InstName R5
SYMATTR Value 10k
SYMBOL res 672 80 R90
WINDOW 0 0 56 VBottom 2
WINDOW 3 32 56 VTop 2
SYMATTR InstName R6
SYMATTR Value 10k
SYMBOL cap 320 64 R90
WINDOW 0 0 32 VBottom 2
WINDOW 3 32 32 VTop 2
SYMATTR InstName C2
SYMATTR Value 100n
SYMBOL res 96 224 R90
WINDOW 0 0 56 VBottom 2
WINDOW 3 32 56 VTop 2
SYMATTR InstName R7
SYMATTR Value 3.5k
SYMBOL res 96 112 R90
WINDOW 0 0 56 VBottom 2
WINDOW 3 32 56 VTop 2
SYMATTR InstName R8
SYMATTR Value 1k
SYMBOL component\\ADTL082 288 640 R0
SYMATTR InstName U5
SYMBOL component\\ADTL082 592 656 R0
SYMATTR InstName U6
SYMBOL res 528 624 R90
WINDOW 0 0 56 VBottom 2
WINDOW 3 32 56 VTop 2
SYMATTR InstName R9
SYMATTR Value 10k
SYMBOL res 672 464 R90
WINDOW 0 0 56 VBottom 2
WINDOW 3 32 56 VTop 2
SYMATTR InstName R10
SYMATTR Value 10k
SYMBOL cap 320 448 R90
WINDOW 0 0 32 VBottom 2
WINDOW 3 32 32 VTop 2
SYMATTR InstName C3
SYMATTR Value 100n
SYMBOL res 96 608 R90
WINDOW 0 0 56 VBottom 2
WINDOW 3 32 56 VTop 2
SYMATTR InstName R11
SYMATTR Value 35.7k
SYMBOL res 96 496 R90
WINDOW 0 0 56 VBottom 2
WINDOW 3 32 56 VTop 2
SYMATTR InstName R12
SYMATTR Value 1k
SYMBOL res 96 336 R90
WINDOW 0 0 56 VBottom 2
WINDOW 3 32 56 VTop 2
SYMATTR InstName R13
SYMATTR Value 100k
SYMBOL component\\AD633 -208 112 R0
SYMATTR InstName U7
SYMBOL component\\AD633 -208 496 R0
SYMATTR InstName U8
TEXT -704 216 Left 2 !.tran 0 10 10m startup
TEXT -704 848 Left 2 !.wave "C:\\POLITEK\\CHAOS\\LTSPICE\\out_ssignal_lorenz.wav" 16 44.1k V(x)
